
No compatibility mode selected!


Circuit: 

Doing analysis at TEMP = 27.000000 and TNOM = 27.000000

Warning: v1: has no value, DC 0 assumed

No. of Data Rows : 51
                                        
                                        AC Analysis  Mon Oct 28 18:49:24  2024
--------------------------------------------------------------------------------
Index   frequency       vdb(3)          
--------------------------------------------------------------------------------
0	1.000000e+03	-4.12762e-01	
1	1.258925e+03	-6.37768e-01	
2	1.584893e+03	-9.72934e-01	
3	1.995262e+03	-1.45813e+00	
4	2.511886e+03	-2.13487e+00	
5	3.162278e+03	-3.03758e+00	
6	3.981072e+03	-4.18449e+00	
7	5.011872e+03	-5.57408e+00	
8	6.309573e+03	-7.19028e+00	
9	7.943282e+03	-9.01353e+00	
10	1.000000e+04	-1.10317e+01	
11	1.258925e+04	-1.32461e+01	
12	1.584893e+04	-1.56709e+01	
13	1.995262e+04	-1.83260e+01	
14	2.511886e+04	-2.12255e+01	
15	3.162278e+04	-2.43672e+01	
16	3.981072e+04	-2.77295e+01	
17	5.011872e+04	-3.12757e+01	
18	6.309573e+04	-3.49641e+01	
19	7.943282e+04	-3.87559e+01	
20	1.000000e+05	-4.26193e+01	
21	1.258925e+05	-4.65310e+01	
22	1.584893e+05	-5.04744e+01	
23	1.995262e+05	-5.44383e+01	
24	2.511886e+05	-5.84154e+01	
25	3.162278e+05	-6.24009e+01	
26	3.981072e+05	-6.63917e+01	
27	5.011872e+05	-7.03859e+01	
28	6.309573e+05	-7.43822e+01	
29	7.943282e+05	-7.83799e+01	
30	1.000000e+06	-8.23784e+01	
31	1.258925e+06	-8.63775e+01	
32	1.584893e+06	-9.03769e+01	
33	1.995262e+06	-9.43766e+01	
34	2.511886e+06	-9.83763e+01	
35	3.162278e+06	-1.02376e+02	
36	3.981072e+06	-1.06376e+02	
37	5.011872e+06	-1.10376e+02	
38	6.309573e+06	-1.14376e+02	
39	7.943282e+06	-1.18376e+02	
40	1.000000e+07	-1.22376e+02	
41	1.258925e+07	-1.26376e+02	
42	1.584893e+07	-1.30376e+02	
43	1.995262e+07	-1.34376e+02	
44	2.511886e+07	-1.38376e+02	
45	3.162278e+07	-1.42376e+02	
46	3.981072e+07	-1.46376e+02	
47	5.011872e+07	-1.50376e+02	
48	6.309573e+07	-1.54376e+02	
49	7.943282e+07	-1.58376e+02	
50	1.000000e+08	-1.62376e+02	


Total analysis time (seconds) = 0.001

Total elapsed time (seconds) = 0.008 

Total DRAM available = 12978.965 MB.
DRAM currently available = 4515.875 MB.
Maximum ngspice program size =   20.039 MB.
Current ngspice program size =   12.117 MB.

Shared ngspice pages =   10.246 MB.
Text (code) pages =    5.316 MB.
Stack = 0 bytes.
Library pages =    2.094 MB.

